Circuit: * Circuit Extracted by Tanner Research's L-Edit V7.12 / Extract V4.00

